LTspice 24.0.12 for Windows
Circuit: * G:\Mi unidad\KICAD_Projects\FuenteRegulable\Simulaciones\FusibleElectronico.asc
Start Time: Fri Nov  7 08:33:46 2025
solver = Normal
Maximum thread count: 2
tnom = 27
temp = 27
method = modified trap
