LTspice 24.1.8 for Windows
Circuit: G:\Mi unidad\KICAD_Projects\Fuente-Variable-con-Microcontrolador-\Simulaciones\FusibleElectronico.net
Start Time: Tue Nov 11 23:41:51 2025
solver = Normal
Maximum thread count: 4
tnom = 27
temp = 27
method = trap
Direct Newton iteration for .op point succeeded.
Total elapsed time: 0.786 seconds.

Files loaded:
G:\Mi unidad\KICAD_Projects\Fuente-Variable-con-Microcontrolador-\Simulaciones\FusibleElectronico.net
C:\Users\EmanuelDecima\AppData\Local\LTspice\lib\cmp\standard.mos

