LTspice 24.0.12 for Windows
Circuit: * G:\Mi unidad\KICAD_Projects\FuenteRegulable\Simulaciones\PuenteDiodos.asc
Start Time: Fri Nov  7 08:33:55 2025
solver = Normal
Maximum thread count: 2
tnom = 27
temp = 27
method = modified trap
Direct Newton iteration for .op point succeeded.
Total elapsed time: 0.519 seconds.

